&NAMAATESTPROG
  NSMAX=30,
  NDGLG=32,
  NDLON=64,
  NFLEVG=15,
/
&NAMTRANS
  LUSEFLT=.FALSE.,
  LUSERPNM=.TRUE.,
  LKEEPRPNM=.TRUE.,
/
&NAMPAR0
/
&NAMPAR1
  LEQ_REGIONS=.TRUE.,
  LSPLIT=.TRUE.,
/
&NAMRGRI
  NRGRI=20,30,40,48,54,60,64,64,64,64,64,64,64,64,64,64,64,64,64,64,64,64,64,64,64,64,60,54,48,40,30,20,
/

